/*--------------------------------*- C++ -*----------------------------------*\
| OpenFOAM-12  propeller MRF case  (generated by scripts/gen_case.py)          |
\*---------------------------------------------------------------------------*/
FoamFile
{
    format      ascii;
    class       dictionary;
    location    "constant";
    object      physicalProperties;
}
// * * * * * * * * * * * * * * * * * * * * * * * * * * * * * * * * * * * * * //

viscosityModel  constant;

nu  [0 2 -1 0 0 0 0] 1.5e-05;
