/*--------------------------------*- C++ -*----------------------------------*\
| OpenFOAM-12  propeller MRF case  (generated by scripts/gen_case.py)          |
\*---------------------------------------------------------------------------*/
FoamFile
{
    format      ascii;
    class       volScalarField;
    location    "0";
    object      k;
}
// * * * * * * * * * * * * * * * * * * * * * * * * * * * * * * * * * * * * * //

dimensions      [0 2 -2 0 0 0 0];
internalField   uniform 0.01;

boundaryField
{
    farField
    {
        type            inletOutlet;
        inletValue      uniform 0.01;
        value           uniform 0.01;
    }
    propeller
    {
        type            kqRWallFunction;
        value           uniform 0.01;
    }
}
