/*--------------------------------*- C++ -*----------------------------------*\
| OpenFOAM-12  propeller MRF case  (generated by scripts/gen_case.py)          |
\*---------------------------------------------------------------------------*/
FoamFile
{
    format      ascii;
    class       volScalarField;
    location    "0";
    object      p;
}
// * * * * * * * * * * * * * * * * * * * * * * * * * * * * * * * * * * * * * //

dimensions      [0 2 -2 0 0 0 0];
internalField   uniform 0;

boundaryField
{
    farField
    {
        type            totalPressure;
        p0              uniform 0;
    }
    propeller
    {
        type            zeroGradient;
    }
}
