/*--------------------------------*- C++ -*----------------------------------*\
| OpenFOAM-12  propeller MRF case  (generated by scripts/gen_case.py)          |
\*---------------------------------------------------------------------------*/
FoamFile
{
    format      ascii;
    class       dictionary;
    location    "system";
    object      controlDict;
}
// * * * * * * * * * * * * * * * * * * * * * * * * * * * * * * * * * * * * * //

application     foamRun;
solver          incompressibleFluid;

startFrom       startTime;
startTime       0;
stopAt          endTime;
endTime         1500;
deltaT          1;

writeControl    timeStep;
writeInterval   250;
purgeWrite      2;
writeFormat     ascii;
writePrecision  7;
writeCompression off;
timeFormat      general;
runTimeModifiable yes;

functions
{
    #includeFunc forces
}
